 # Building the supercell from the POSCAR file
 
 CRYSTAL
 
 PRIMVEC
  20.000000000   0.000000000   0.000000000
   0.000000000  20.000000000   0.000000000
   0.000000000   0.000000000  20.000000000
 PRIMCOORD
  3  1
 16    4.99999987    5.97111460    4.99999989
  3    3.78518886    4.74774744    3.78518883
  3    6.21482168    4.74774744    6.21482144
