 # Building the supercell from the POSCAR file
 
 CRYSTAL
 
 PRIMVEC
  20.000000000   0.000000000   0.000000000
   0.000000000  20.000000000   0.000000000
   0.000000000   0.000000000  20.000000000
 PRIMCOORD
  4  1
 16    8.06656196   10.00185247   11.04770460
 16   10.24391697   10.06505072   11.05596872
  3    9.20906871    8.28452637   10.23921042
  3    9.11166815   11.66838559   10.02873277
