 # Building the supercell from the POSCAR file
 
 CRYSTAL
 
 PRIMVEC
  20.000000000   0.000000000   0.000000000
   0.000000000  20.000000000   0.000000000
   0.000000000   0.000000000  20.000000000
 PRIMCOORD
  8  1
 16    8.01641558   11.96828441    9.75653516
 16    9.79615193   12.61906428   10.57027078
 16   11.36462561   11.95092413    9.40995031
 16   12.14182545   10.22832087   10.23553777
 16   11.33335607    8.58747991    9.28337277
 16    9.75235284    7.86278054   10.39160142
 16    7.98549269    8.60486767    9.62989096
 16    7.40664196   10.25319875   10.72572666
