 # Building the supercell from the POSCAR file
 
 CRYSTAL
 
 PRIMVEC
  20.000000000   0.000000000   0.000000000
   0.000000000  20.000000000   0.000000000
   0.000000000   0.000000000  20.000000000
 PRIMCOORD
 10  1
 16    7.91568020   11.96847055   11.15926578
 16    9.85832531   12.62688714   11.28465921
 16   10.79220495   12.49864829    9.42060011
 16   12.34594561   11.15397979    9.48261505
 16   11.82047724    9.30074544    8.69732945
 16   11.39317933    7.88586009   10.14329851
 16    7.55101084    8.61965910   10.31304576
 16    7.69155353   10.01191097   11.83567109
  3    9.56412823    8.50990336   11.52740332
  3    9.50067126    8.59527859    8.94422483
