 # Building the supercell from the POSCAR file
 
 CRYSTAL
 
 PRIMVEC
  20.000000000   0.000000000   0.000000000
   0.000000000  20.000000000   0.000000000
   0.000000000   0.000000000  20.000000000
 PRIMCOORD
  6  1
 16    8.94804020   10.71328390    8.53679511
 16   10.96469544   10.73517460    9.20811337
 16   11.70862332    8.85109556    8.75616228
 16    8.08281013    9.07265099    9.46765060
  3    9.59673947    8.53857802    7.76189778
  3   10.17750080    8.89462774   10.52939109
