 # Building the supercell from the POSCAR file
 
 CRYSTAL
 
 PRIMVEC
  20.000000000   0.000000000   0.000000000
   0.000000000  20.000000000   0.000000000
   0.000000000   0.000000000  20.000000000
 PRIMCOORD
  8  1
 16    7.22952947   10.19668066    8.53841370
 16    8.44899582   11.39314331    9.67823304
 16   10.42417348   11.36466281    8.88352626
 16   11.54416933    9.92387350    9.85546034
 16   11.22725800    8.08952210    8.94838464
 16    7.42704491    8.22260832    9.16855071
  3    9.45066494    8.70549991   10.46176644
  3    9.23148397    8.92151907    7.75359411
